data_generated_structure
_symmetry_space_group_name_H-M   'P 1'
_cell_length_a   12.0
_cell_length_b   9.433981132056603
_cell_length_c   32.14031735997639
_cell_angle_alpha   90
_cell_angle_beta    90
_cell_angle_gamma   74.498640433063
_symmetry_Int_Tables_number 1
loop_
 _atom_site_label
 _atom_site_type_symbol
 _atom_site_fract_x
 _atom_site_fract_y
 _atom_site_fract_z
  Atom1  Sr  0.579667  -0.088440  0.320000
  Atom2  Sr  0.315830  -0.016022  0.323853
  Atom3  Sr  0.120406  0.059864  0.424925
  Atom4  Sr  0.633751  -0.900870  0.368403
  Atom5  Sr  1.097549  -1.050490  0.263331
  Atom6  Sr  0.831039  -0.976837  0.267756
  Atom7  Sr  0.609102  -0.072879  0.427906
  Atom8  Sr  0.353440  -0.003356  0.426859
  Atom9  Sr  0.139793  0.079796  0.540441
  Atom10  Sr  0.655251  -0.881529  0.484538
  Atom11  Sr  1.124910  -1.034274  0.372141
  Atom12  Sr  0.868684  -0.964490  0.371434
  Atom13  Sr  0.638436  -0.057318  0.536078
  Atom14  Sr  0.372592  0.016715  0.542603
  Atom15  Sr  0.177770  0.092022  0.644278
  Atom16  Sr  0.693228  -0.869143  0.588444
  Atom17  Sr  1.153918  -1.018589  0.480241
  Atom18  Sr  0.887976  -0.944575  0.486769
  Atom19  O  0.781484  -1.157729  0.315837
  Atom20  O  1.025329  -1.252663  0.314116
  Atom21  O  1.451568  -1.714739  0.258337
  Atom22  O  1.218358  -1.683445  0.260166
  Atom23  O  0.511879  -0.300632  0.369984
  Atom24  O  0.266399  -0.200621  0.371828
  Atom25  O  0.704160  -0.726904  0.315841
  Atom26  O  0.937444  -0.762874  0.314109
  Atom27  O  0.797066  -1.117081  0.428163
  Atom28  O  1.269326  -1.266985  0.315903
  Atom29  O  1.049078  -1.182773  0.428744
  Atom30  O  1.495886  -1.761668  0.372912
  Atom31  O  1.242680  -1.690212  0.372253
  Atom32  O  1.716327  -1.846864  0.259941
  Atom33  O  0.533712  -0.222053  0.484581
  Atom34  O  0.281446  -0.155792  0.483919
  Atom35  O  0.754009  -0.306435  0.371603
  Atom36  O  0.727441  -0.729055  0.428166
  Atom37  O  1.201026  -0.886365  0.315903
  Atom38  O  0.980569  -0.801038  0.428744
  Atom39  O  0.819878  -1.117453  0.540344
  Atom40  O  1.311861  -1.303003  0.430544
  Atom41  O  1.258583  -1.651130  0.484497
  Atom42  O  1.014460  -1.556524  0.486372
  Atom43  O  0.304508  -0.156535  0.596166
  Atom44  O  0.796552  -0.342369  0.486375
  Atom45  O  0.743219  -0.690228  0.540344
  Atom46  O  0.499144  -0.595994  0.542209
